BEGIN OPTIONS
  DIGITS 5
  PRINT_INPUT
END OPTIONS
BEGIN CONTINUOUS FILEOUT NBr76.SFR6.obs.output.csv
# obsname  obstype  rno
  Outlet_stage  stage  3662
  Outlet_ext-inflow  ext-inflow  3662
  Outlet_inflow  inflow  3662
  Outlet_from-mvr  from-mvr  3662
  Outlet_rainfall  rainfall  3662
  Outlet_runoff  runoff  3662
  Outlet_sfr  sfr  3662
  Outlet_evaporation  evaporation  3662
  Outlet_outflow  outflow  3662
  Outlet_ext-outflow  ext-outflow  3662
  Outlet_to-mvr  to-mvr  3662
  Outlet_upstream-flow  upstream-flow  3662
  Outlet_downstream-flow  downstream-flow  3662
  Outlet_depth  depth  3662
  Outlet_wet-perimeter  wet-perimeter  3662
  Outlet_wet-area  wet-area  3662
  Outlet_wet-width  wet-width  3662
  Outlet_1UStr_downstream-flow  downstream-flow  3661
  Outlet_1UStr_depth  depth  3661
  Outlet_OBS_Pnt_downstream-flow  downstream-flow  3577
  Outlet_OBS_Pnt_depth  depth  3577
  Main_stream_1_downstream-flow  downstream-flow  3230
  Main_stream_1_depth  depth  3230
  Main_stream_2_downstream-flow  downstream-flow  3240
  Main_stream_2_depth  depth  3240
  Main_stream_3_downstream-flow  downstream-flow  3250
  Main_stream_3_depth  depth  3250
  Main_stream_4_downstream-flow  downstream-flow  3154
  Main_stream_4_depth  depth  3154
  Main_stream_5_downstream-flow  downstream-flow  3150
  Main_stream_5_depth  depth  3150
  1ry_upstream_downstream-flow  downstream-flow  1398
  1ry_upstream_depth  depth  1398
  1ry_and_3ry_upstream_downstream-flow  downstream-flow  963
  1ry_and_3ry_upstream_depth  depth  963
  3ry_upstream_downstream-flow  downstream-flow  1434
  3ry_upstream_depth  depth  1434
  downstream-flow_L7_R282_C393  downstream-flow  1
  downstream-flow_L7_R281_C393  downstream-flow  2
  downstream-flow_L7_R281_C392  downstream-flow  3
  downstream-flow_L7_R281_C391  downstream-flow  4
  downstream-flow_L7_R281_C390  downstream-flow  5
  downstream-flow_L7_R280_C390  downstream-flow  6
  downstream-flow_L7_R280_C389  downstream-flow  7
  downstream-flow_L5_R280_C388  downstream-flow  8
  downstream-flow_L5_R280_C387  downstream-flow  9
  downstream-flow_L5_R279_C387  downstream-flow  10
  downstream-flow_L5_R279_C386  downstream-flow  11
  downstream-flow_L5_R279_C385  downstream-flow  12
  downstream-flow_L5_R279_C384  downstream-flow  13
  downstream-flow_L5_R278_C384  downstream-flow  14
  downstream-flow_L5_R278_C383  downstream-flow  15
  downstream-flow_L5_R278_C382  downstream-flow  16
  downstream-flow_L5_R278_C381  downstream-flow  17
  downstream-flow_L5_R277_C381  downstream-flow  18
  downstream-flow_L5_R277_C380  downstream-flow  19
  downstream-flow_L5_R277_C379  downstream-flow  20
  downstream-flow_L5_R277_C378  downstream-flow  21
  downstream-flow_L5_R276_C378  downstream-flow  22
  downstream-flow_L5_R276_C377  downstream-flow  23
  downstream-flow_L5_R276_C376  downstream-flow  24
  downstream-flow_L5_R275_C375  downstream-flow  25
  downstream-flow_L5_R275_C374  downstream-flow  26
  downstream-flow_L5_R275_C373  downstream-flow  27
  downstream-flow_L5_R274_C373  downstream-flow  28
  downstream-flow_L5_R274_C372  downstream-flow  29
  downstream-flow_L5_R281_C350  downstream-flow  30
  downstream-flow_L5_R280_C350  downstream-flow  31
  downstream-flow_L5_R280_C349  downstream-flow  32
  downstream-flow_L5_R280_C348  downstream-flow  33
  downstream-flow_L5_R280_C347  downstream-flow  34
  downstream-flow_L5_R279_C347  downstream-flow  35
  downstream-flow_L5_R279_C346  downstream-flow  36
  downstream-flow_L5_R279_C345  downstream-flow  37
  downstream-flow_L5_R278_C345  downstream-flow  38
  downstream-flow_L5_R278_C344  downstream-flow  39
  downstream-flow_L7_R274_C371  downstream-flow  40
  downstream-flow_L7_R274_C370  downstream-flow  41
  downstream-flow_L7_R273_C370  downstream-flow  42
  downstream-flow_L5_R273_C369  downstream-flow  43
  downstream-flow_L5_R273_C368  downstream-flow  44
  downstream-flow_L5_R273_C367  downstream-flow  45
  downstream-flow_L5_R272_C367  downstream-flow  46
  downstream-flow_L5_R272_C366  downstream-flow  47
  downstream-flow_L5_R272_C365  downstream-flow  48
  downstream-flow_L5_R272_C364  downstream-flow  49
  downstream-flow_L5_R271_C364  downstream-flow  50
  downstream-flow_L5_R271_C363  downstream-flow  51
  downstream-flow_L5_R271_C362  downstream-flow  52
  downstream-flow_L5_R271_C361  downstream-flow  53
  downstream-flow_L5_R270_C361  downstream-flow  54
  downstream-flow_L5_R270_C360  downstream-flow  55
  downstream-flow_L5_R270_C359  downstream-flow  56
  downstream-flow_L5_R270_C358  downstream-flow  57
  downstream-flow_L5_R269_C358  downstream-flow  58
  downstream-flow_L5_R269_C357  downstream-flow  59
  downstream-flow_L5_R269_C356  downstream-flow  60
  downstream-flow_L5_R269_C355  downstream-flow  61
  downstream-flow_L5_R268_C355  downstream-flow  62
  downstream-flow_L5_R268_C354  downstream-flow  63
  downstream-flow_L5_R268_C353  downstream-flow  64
  downstream-flow_L5_R267_C353  downstream-flow  65
  downstream-flow_L5_R267_C352  downstream-flow  66
  downstream-flow_L5_R267_C351  downstream-flow  67
  downstream-flow_L5_R267_C350  downstream-flow  68
  downstream-flow_L5_R266_C350  downstream-flow  69
  downstream-flow_L5_R266_C349  downstream-flow  70
  downstream-flow_L5_R266_C348  downstream-flow  71
  downstream-flow_L5_R278_C343  downstream-flow  72
  downstream-flow_L5_R278_C342  downstream-flow  73
  downstream-flow_L5_R277_C342  downstream-flow  74
  downstream-flow_L5_R277_C341  downstream-flow  75
  downstream-flow_L5_R277_C340  downstream-flow  76
  downstream-flow_L5_R276_C339  downstream-flow  77
  downstream-flow_L5_R275_C339  downstream-flow  78
  downstream-flow_L5_R275_C340  downstream-flow  79
  downstream-flow_L5_R274_C340  downstream-flow  80
  downstream-flow_L5_R274_C341  downstream-flow  81
  downstream-flow_L5_R273_C341  downstream-flow  82
  downstream-flow_L5_R272_C341  downstream-flow  83
  downstream-flow_L5_R272_C342  downstream-flow  84
  downstream-flow_L5_R271_C342  downstream-flow  85
  downstream-flow_L5_R271_C343  downstream-flow  86
  downstream-flow_L5_R270_C343  downstream-flow  87
  downstream-flow_L5_R270_C344  downstream-flow  88
  downstream-flow_L5_R269_C344  downstream-flow  89
  downstream-flow_L5_R265_C347  downstream-flow  90
  downstream-flow_L5_R266_C347  downstream-flow  91
  downstream-flow_L5_R266_C346  downstream-flow  92
  downstream-flow_L5_R267_C346  downstream-flow  93
  downstream-flow_L5_R267_C345  downstream-flow  94
  downstream-flow_L5_R268_C345  downstream-flow  95
  downstream-flow_L5_R268_C344  downstream-flow  96
  downstream-flow_L5_R268_C343  downstream-flow  97
  downstream-flow_L5_R267_C343  downstream-flow  98
  downstream-flow_L5_R267_C342  downstream-flow  99
  downstream-flow_L5_R267_C341  downstream-flow  100
  downstream-flow_L5_R266_C340  downstream-flow  101
  downstream-flow_L5_R266_C339  downstream-flow  102
  downstream-flow_L5_R266_C338  downstream-flow  103
  downstream-flow_L5_R265_C338  downstream-flow  104
  downstream-flow_L5_R265_C337  downstream-flow  105
  downstream-flow_L5_R264_C337  downstream-flow  106
  downstream-flow_L5_R264_C338  downstream-flow  107
  downstream-flow_L5_R263_C338  downstream-flow  108
  downstream-flow_L5_R262_C338  downstream-flow  109
  downstream-flow_L5_R262_C337  downstream-flow  110
  downstream-flow_L5_R262_C336  downstream-flow  111
  downstream-flow_L5_R261_C336  downstream-flow  112
  downstream-flow_L5_R261_C335  downstream-flow  113
  downstream-flow_L5_R261_C334  downstream-flow  114
  downstream-flow_L5_R261_C333  downstream-flow  115
  downstream-flow_L5_R261_C332  downstream-flow  116
  downstream-flow_L5_R261_C331  downstream-flow  117
  downstream-flow_L5_R273_C326  downstream-flow  118
  downstream-flow_L5_R273_C327  downstream-flow  119
  downstream-flow_L5_R272_C327  downstream-flow  120
  downstream-flow_L5_R271_C327  downstream-flow  121
  downstream-flow_L5_R270_C327  downstream-flow  122
  downstream-flow_L5_R270_C326  downstream-flow  123
  downstream-flow_L5_R269_C326  downstream-flow  124
  downstream-flow_L5_R268_C326  downstream-flow  125
  downstream-flow_L5_R268_C325  downstream-flow  126
  downstream-flow_L5_R267_C325  downstream-flow  127
  downstream-flow_L5_R267_C324  downstream-flow  128
  downstream-flow_L5_R266_C324  downstream-flow  129
  downstream-flow_L5_R265_C324  downstream-flow  130
  downstream-flow_L5_R264_C323  downstream-flow  131
  downstream-flow_L5_R262_C330  downstream-flow  132
  downstream-flow_L5_R262_C329  downstream-flow  133
  downstream-flow_L5_R262_C328  downstream-flow  134
  downstream-flow_L5_R262_C327  downstream-flow  135
  downstream-flow_L5_R262_C326  downstream-flow  136
  downstream-flow_L5_R263_C326  downstream-flow  137
  downstream-flow_L5_R263_C325  downstream-flow  138
  downstream-flow_L5_R263_C324  downstream-flow  139
  downstream-flow_L5_R263_C323  downstream-flow  140
  downstream-flow_L5_R263_C322  downstream-flow  141
  downstream-flow_L5_R263_C321  downstream-flow  142
  downstream-flow_L5_R263_C320  downstream-flow  143
  downstream-flow_L5_R262_C320  downstream-flow  144
  downstream-flow_L5_R262_C319  downstream-flow  145
  downstream-flow_L5_R262_C318  downstream-flow  146
  downstream-flow_L5_R262_C317  downstream-flow  147
  downstream-flow_L5_R262_C316  downstream-flow  148
  downstream-flow_L5_R262_C315  downstream-flow  149
  downstream-flow_L9_R261_C315  downstream-flow  150
  downstream-flow_L9_R261_C314  downstream-flow  151
  downstream-flow_L9_R261_C313  downstream-flow  152
  downstream-flow_L9_R260_C312  downstream-flow  153
  downstream-flow_L9_R260_C311  downstream-flow  154
  downstream-flow_L9_R260_C310  downstream-flow  155
  downstream-flow_L9_R259_C310  downstream-flow  156
  downstream-flow_L9_R259_C309  downstream-flow  157
  downstream-flow_L9_R259_C308  downstream-flow  158
  downstream-flow_L9_R259_C307  downstream-flow  159
  downstream-flow_L9_R259_C306  downstream-flow  160
  downstream-flow_L9_R259_C305  downstream-flow  161
  downstream-flow_L9_R259_C304  downstream-flow  162
  downstream-flow_L9_R259_C303  downstream-flow  163
  downstream-flow_L9_R258_C303  downstream-flow  164
  downstream-flow_L9_R258_C302  downstream-flow  165
  downstream-flow_L10_R258_C301  downstream-flow  166
  downstream-flow_L10_R258_C300  downstream-flow  167
  downstream-flow_L10_R258_C299  downstream-flow  168
  downstream-flow_L10_R258_C298  downstream-flow  169
  downstream-flow_L10_R257_C298  downstream-flow  170
  downstream-flow_L10_R257_C297  downstream-flow  171
  downstream-flow_L10_R257_C296  downstream-flow  172
  downstream-flow_L10_R257_C295  downstream-flow  173
  downstream-flow_L10_R257_C294  downstream-flow  174
  downstream-flow_L10_R257_C293  downstream-flow  175
  downstream-flow_L10_R263_C289  downstream-flow  176
  downstream-flow_L10_R263_C288  downstream-flow  177
  downstream-flow_L10_R257_C292  downstream-flow  178
  downstream-flow_L10_R262_C289  downstream-flow  179
  downstream-flow_L10_R261_C289  downstream-flow  180
  downstream-flow_L10_R260_C289  downstream-flow  181
  downstream-flow_L10_R260_C288  downstream-flow  182
  downstream-flow_L10_R259_C288  downstream-flow  183
  downstream-flow_L10_R259_C287  downstream-flow  184
  downstream-flow_L10_R259_C286  downstream-flow  185
  downstream-flow_L10_R258_C286  downstream-flow  186
  downstream-flow_L10_R258_C285  downstream-flow  187
  downstream-flow_L10_R258_C284  downstream-flow  188
  downstream-flow_L10_R257_C284  downstream-flow  189
  downstream-flow_L10_R257_C283  downstream-flow  190
  downstream-flow_L10_R256_C292  downstream-flow  191
  downstream-flow_L10_R256_C291  downstream-flow  192
  downstream-flow_L10_R256_C290  downstream-flow  193
  downstream-flow_L10_R256_C289  downstream-flow  194
  downstream-flow_L10_R256_C288  downstream-flow  195
  downstream-flow_L10_R256_C287  downstream-flow  196
  downstream-flow_L10_R255_C286  downstream-flow  197
  downstream-flow_L10_R255_C285  downstream-flow  198
  downstream-flow_L10_R256_C283  downstream-flow  199
  downstream-flow_L10_R255_C284  downstream-flow  200
  downstream-flow_L10_R255_C283  downstream-flow  201
  downstream-flow_L10_R255_C282  downstream-flow  202
  downstream-flow_L10_R254_C282  downstream-flow  203
  downstream-flow_L10_R254_C281  downstream-flow  204
  downstream-flow_L10_R254_C280  downstream-flow  205
  downstream-flow_L10_R254_C279  downstream-flow  206
  downstream-flow_L10_R253_C279  downstream-flow  207
  downstream-flow_L10_R253_C278  downstream-flow  208
  downstream-flow_L10_R253_C277  downstream-flow  209
  downstream-flow_L10_R253_C276  downstream-flow  210
  downstream-flow_L10_R252_C275  downstream-flow  211
  downstream-flow_L10_R252_C274  downstream-flow  212
  downstream-flow_L10_R252_C273  downstream-flow  213
  downstream-flow_L10_R301_C277  downstream-flow  214
  downstream-flow_L10_R301_C276  downstream-flow  215
  downstream-flow_L10_R300_C276  downstream-flow  216
  downstream-flow_L10_R299_C276  downstream-flow  217
  downstream-flow_L10_R299_C275  downstream-flow  218
  downstream-flow_L10_R298_C275  downstream-flow  219
  downstream-flow_L10_R297_C274  downstream-flow  220
  downstream-flow_L10_R296_C274  downstream-flow  221
  downstream-flow_L10_R296_C273  downstream-flow  222
  downstream-flow_L10_R295_C273  downstream-flow  223
  downstream-flow_L10_R295_C272  downstream-flow  224
  downstream-flow_L10_R294_C272  downstream-flow  225
  downstream-flow_L10_R293_C272  downstream-flow  226
  downstream-flow_L10_R293_C271  downstream-flow  227
  downstream-flow_L10_R292_C271  downstream-flow  228
  downstream-flow_L10_R292_C270  downstream-flow  229
  downstream-flow_L10_R291_C270  downstream-flow  230
  downstream-flow_L10_R290_C270  downstream-flow  231
  downstream-flow_L10_R290_C269  downstream-flow  232
  downstream-flow_L10_R289_C269  downstream-flow  233
  downstream-flow_L10_R289_C268  downstream-flow  234
  downstream-flow_L10_R288_C268  downstream-flow  235
  downstream-flow_L10_R287_C268  downstream-flow  236
  downstream-flow_L10_R287_C267  downstream-flow  237
  downstream-flow_L10_R286_C267  downstream-flow  238
  downstream-flow_L10_R286_C266  downstream-flow  239
  downstream-flow_L10_R285_C266  downstream-flow  240
  downstream-flow_L10_R284_C266  downstream-flow  241
  downstream-flow_L10_R284_C265  downstream-flow  242
  downstream-flow_L10_R283_C265  downstream-flow  243
  downstream-flow_L10_R283_C264  downstream-flow  244
  downstream-flow_L10_R282_C264  downstream-flow  245
  downstream-flow_L10_R281_C263  downstream-flow  246
  downstream-flow_L10_R280_C263  downstream-flow  247
  downstream-flow_L10_R280_C262  downstream-flow  248
  downstream-flow_L10_R279_C262  downstream-flow  249
  downstream-flow_L10_R279_C261  downstream-flow  250
  downstream-flow_L10_R278_C261  downstream-flow  251
  downstream-flow_L10_R252_C272  downstream-flow  252
  downstream-flow_L10_R251_C272  downstream-flow  253
  downstream-flow_L10_R251_C271  downstream-flow  254
  downstream-flow_L10_R252_C271  downstream-flow  255
  downstream-flow_L10_R252_C270  downstream-flow  256
  downstream-flow_L10_R277_C261  downstream-flow  257
  downstream-flow_L10_R277_C260  downstream-flow  258
  downstream-flow_L10_R276_C260  downstream-flow  259
  downstream-flow_L10_R276_C259  downstream-flow  260
  downstream-flow_L10_R275_C259  downstream-flow  261
  downstream-flow_L10_R274_C259  downstream-flow  262
  downstream-flow_L10_R274_C258  downstream-flow  263
  downstream-flow_L10_R273_C258  downstream-flow  264
  downstream-flow_L10_R273_C257  downstream-flow  265
  downstream-flow_L10_R272_C257  downstream-flow  266
  downstream-flow_L10_R271_C257  downstream-flow  267
  downstream-flow_L10_R271_C256  downstream-flow  268
  downstream-flow_L10_R270_C256  downstream-flow  269
  downstream-flow_L10_R270_C255  downstream-flow  270
  downstream-flow_L10_R269_C255  downstream-flow  271
  downstream-flow_L10_R268_C255  downstream-flow  272
  downstream-flow_L10_R268_C254  downstream-flow  273
  downstream-flow_L10_R267_C254  downstream-flow  274
  downstream-flow_L10_R266_C254  downstream-flow  275
  downstream-flow_L10_R265_C253  downstream-flow  276
  downstream-flow_L10_R264_C253  downstream-flow  277
  downstream-flow_L10_R263_C253  downstream-flow  278
  downstream-flow_L10_R253_C269  downstream-flow  279
  downstream-flow_L10_R253_C268  downstream-flow  280
  downstream-flow_L10_R253_C267  downstream-flow  281
  downstream-flow_L10_R263_C254  downstream-flow  282
  downstream-flow_L10_R262_C254  downstream-flow  283
  downstream-flow_L10_R261_C254  downstream-flow  284
  downstream-flow_L10_R253_C266  downstream-flow  285
  downstream-flow_L10_R253_C265  downstream-flow  286
  downstream-flow_L10_R253_C264  downstream-flow  287
  downstream-flow_L10_R253_C263  downstream-flow  288
  downstream-flow_L10_R253_C262  downstream-flow  289
  downstream-flow_L10_R253_C261  downstream-flow  290
  downstream-flow_L10_R253_C260  downstream-flow  291
  downstream-flow_L10_R261_C255  downstream-flow  292
  downstream-flow_L10_R260_C255  downstream-flow  293
  downstream-flow_L10_R259_C255  downstream-flow  294
  downstream-flow_L10_R259_C256  downstream-flow  295
  downstream-flow_L10_R258_C256  downstream-flow  296
  downstream-flow_L10_R257_C256  downstream-flow  297
  downstream-flow_L10_R257_C257  downstream-flow  298
  downstream-flow_L10_R256_C257  downstream-flow  299
  downstream-flow_L10_R255_C258  downstream-flow  300
  downstream-flow_L10_R254_C258  downstream-flow  301
  downstream-flow_L10_R254_C259  downstream-flow  302
  downstream-flow_L5_R239_C323  downstream-flow  303
  downstream-flow_L5_R238_C323  downstream-flow  304
  downstream-flow_L5_R238_C322  downstream-flow  305
  downstream-flow_L5_R237_C322  downstream-flow  306
  downstream-flow_L10_R253_C259  downstream-flow  307
  downstream-flow_L10_R252_C259  downstream-flow  308
  downstream-flow_L10_R252_C258  downstream-flow  309
  downstream-flow_L9_R226_C411  downstream-flow  310
  downstream-flow_L9_R225_C411  downstream-flow  311
  downstream-flow_L9_R225_C410  downstream-flow  312
  downstream-flow_L9_R224_C410  downstream-flow  313
  downstream-flow_L9_R224_C409  downstream-flow  314
  downstream-flow_L9_R223_C409  downstream-flow  315
  downstream-flow_L9_R223_C408  downstream-flow  316
  downstream-flow_L9_R222_C408  downstream-flow  317
  downstream-flow_L9_R222_C407  downstream-flow  318
  downstream-flow_L9_R221_C407  downstream-flow  319
  downstream-flow_L9_R221_C406  downstream-flow  320
  downstream-flow_L9_R220_C406  downstream-flow  321
  downstream-flow_L9_R219_C406  downstream-flow  322
  downstream-flow_L9_R219_C405  downstream-flow  323
  downstream-flow_L9_R218_C405  downstream-flow  324
  downstream-flow_L9_R218_C404  downstream-flow  325
  downstream-flow_L9_R217_C404  downstream-flow  326
  downstream-flow_L9_R217_C403  downstream-flow  327
  downstream-flow_L9_R216_C403  downstream-flow  328
  downstream-flow_L9_R216_C402  downstream-flow  329
  downstream-flow_L9_R215_C402  downstream-flow  330
  downstream-flow_L7_R215_C401  downstream-flow  331
  downstream-flow_L7_R214_C401  downstream-flow  332
  downstream-flow_L7_R214_C400  downstream-flow  333
  downstream-flow_L7_R213_C400  downstream-flow  334
  downstream-flow_L7_R212_C400  downstream-flow  335
  downstream-flow_L7_R212_C399  downstream-flow  336
  downstream-flow_L7_R211_C399  downstream-flow  337
  downstream-flow_L7_R211_C398  downstream-flow  338
  downstream-flow_L7_R210_C398  downstream-flow  339
  downstream-flow_L7_R210_C397  downstream-flow  340
  downstream-flow_L7_R209_C397  downstream-flow  341
  downstream-flow_L7_R209_C396  downstream-flow  342
  downstream-flow_L7_R208_C396  downstream-flow  343
  downstream-flow_L7_R208_C395  downstream-flow  344
  downstream-flow_L7_R207_C395  downstream-flow  345
  downstream-flow_L7_R206_C395  downstream-flow  346
  downstream-flow_L7_R205_C395  downstream-flow  347
  downstream-flow_L7_R204_C395  downstream-flow  348
  downstream-flow_L7_R204_C394  downstream-flow  349
  downstream-flow_L7_R203_C394  downstream-flow  350
  downstream-flow_L7_R202_C394  downstream-flow  351
  downstream-flow_L7_R201_C394  downstream-flow  352
  downstream-flow_L7_R201_C393  downstream-flow  353
  downstream-flow_L7_R200_C393  downstream-flow  354
  downstream-flow_L7_R199_C393  downstream-flow  355
  downstream-flow_L7_R198_C393  downstream-flow  356
  downstream-flow_L7_R197_C393  downstream-flow  357
  downstream-flow_L7_R197_C392  downstream-flow  358
  downstream-flow_L7_R196_C392  downstream-flow  359
  downstream-flow_L7_R195_C392  downstream-flow  360
  downstream-flow_L7_R194_C392  downstream-flow  361
  downstream-flow_L7_R194_C391  downstream-flow  362
  downstream-flow_L6_R193_C391  downstream-flow  363
  downstream-flow_L5_R192_C391  downstream-flow  364
  downstream-flow_L5_R191_C391  downstream-flow  365
  downstream-flow_L5_R190_C391  downstream-flow  366
  downstream-flow_L5_R190_C390  downstream-flow  367
  downstream-flow_L5_R189_C390  downstream-flow  368
  downstream-flow_L5_R188_C390  downstream-flow  369
  downstream-flow_L5_R187_C390  downstream-flow  370
  downstream-flow_L5_R187_C389  downstream-flow  371
  downstream-flow_L5_R186_C389  downstream-flow  372
  downstream-flow_L5_R185_C389  downstream-flow  373
  downstream-flow_L5_R185_C390  downstream-flow  374
  downstream-flow_L5_R184_C390  downstream-flow  375
  downstream-flow_L5_R184_C391  downstream-flow  376
  downstream-flow_L5_R184_C392  downstream-flow  377
  downstream-flow_L5_R184_C393  downstream-flow  378
  downstream-flow_L5_R183_C393  downstream-flow  379
  downstream-flow_L5_R183_C394  downstream-flow  380
  downstream-flow_L5_R183_C395  downstream-flow  381
  downstream-flow_L5_R183_C396  downstream-flow  382
  downstream-flow_L5_R182_C396  downstream-flow  383
  downstream-flow_L5_R236_C322  downstream-flow  384
  downstream-flow_L5_R236_C321  downstream-flow  385
  downstream-flow_L5_R237_C321  downstream-flow  386
  downstream-flow_L5_R237_C320  downstream-flow  387
  downstream-flow_L5_R237_C319  downstream-flow  388
  downstream-flow_L5_R236_C319  downstream-flow  389
  downstream-flow_L5_R236_C318  downstream-flow  390
  downstream-flow_L5_R235_C318  downstream-flow  391
  downstream-flow_L5_R235_C317  downstream-flow  392
  downstream-flow_L5_R235_C316  downstream-flow  393
  downstream-flow_L5_R235_C315  downstream-flow  394
  downstream-flow_L5_R236_C315  downstream-flow  395
  downstream-flow_L5_R236_C314  downstream-flow  396
  downstream-flow_L5_R236_C313  downstream-flow  397
  downstream-flow_L5_R236_C312  downstream-flow  398
  downstream-flow_L10_R251_C257  downstream-flow  399
  downstream-flow_L10_R251_C256  downstream-flow  400
  downstream-flow_L10_R251_C255  downstream-flow  401
  downstream-flow_L10_R251_C254  downstream-flow  402
  downstream-flow_L10_R250_C254  downstream-flow  403
  downstream-flow_L10_R250_C253  downstream-flow  404
  downstream-flow_L10_R250_C252  downstream-flow  405
  downstream-flow_L7_R182_C397  downstream-flow  406
  downstream-flow_L7_R182_C398  downstream-flow  407
  downstream-flow_L7_R182_C399  downstream-flow  408
  downstream-flow_L7_R182_C400  downstream-flow  409
  downstream-flow_L7_R181_C400  downstream-flow  410
  downstream-flow_L7_R181_C401  downstream-flow  411
  downstream-flow_L7_R180_C401  downstream-flow  412
  downstream-flow_L7_R179_C401  downstream-flow  413
  downstream-flow_L7_R178_C401  downstream-flow  414
  downstream-flow_L7_R178_C400  downstream-flow  415
  downstream-flow_L7_R177_C400  downstream-flow  416
  downstream-flow_L7_R176_C400  downstream-flow  417
  downstream-flow_L7_R175_C400  downstream-flow  418
  downstream-flow_L7_R174_C400  downstream-flow  419
  downstream-flow_L7_R174_C399  downstream-flow  420
  downstream-flow_L6_R173_C399  downstream-flow  421
  downstream-flow_L5_R172_C399  downstream-flow  422
  downstream-flow_L5_R172_C398  downstream-flow  423
  downstream-flow_L5_R172_C397  downstream-flow  424
  downstream-flow_L5_R172_C396  downstream-flow  425
  downstream-flow_L5_R172_C395  downstream-flow  426
  downstream-flow_L5_R173_C395  downstream-flow  427
  downstream-flow_L5_R237_C312  downstream-flow  428
  downstream-flow_L5_R237_C311  downstream-flow  429
  downstream-flow_L7_R238_C310  downstream-flow  430
  downstream-flow_L7_R238_C309  downstream-flow  431
  downstream-flow_L7_R239_C309  downstream-flow  432
  downstream-flow_L7_R239_C308  downstream-flow  433
  downstream-flow_L5_R240_C308  downstream-flow  434
  downstream-flow_L5_R240_C307  downstream-flow  435
  downstream-flow_L5_R241_C307  downstream-flow  436
  downstream-flow_L6_R241_C306  downstream-flow  437
  downstream-flow_L5_R242_C306  downstream-flow  438
  downstream-flow_L5_R242_C305  downstream-flow  439
  downstream-flow_L5_R242_C304  downstream-flow  440
  downstream-flow_L5_R243_C304  downstream-flow  441
  downstream-flow_L5_R243_C303  downstream-flow  442
  downstream-flow_L5_R244_C303  downstream-flow  443
  downstream-flow_L5_R244_C302  downstream-flow  444
  downstream-flow_L10_R250_C251  downstream-flow  445
  downstream-flow_L10_R249_C251  downstream-flow  446
  downstream-flow_L10_R249_C250  downstream-flow  447
  downstream-flow_L10_R249_C249  downstream-flow  448
  downstream-flow_L10_R249_C248  downstream-flow  449
  downstream-flow_L10_R248_C248  downstream-flow  450
  downstream-flow_L10_R248_C247  downstream-flow  451
  downstream-flow_L10_R248_C246  downstream-flow  452
  downstream-flow_L9_R173_C394  downstream-flow  453
  downstream-flow_L9_R173_C393  downstream-flow  454
  downstream-flow_L9_R173_C392  downstream-flow  455
  downstream-flow_L9_R173_C391  downstream-flow  456
  downstream-flow_L9_R172_C391  downstream-flow  457
  downstream-flow_L9_R171_C391  downstream-flow  458
  downstream-flow_L9_R170_C391  downstream-flow  459
  downstream-flow_L9_R169_C391  downstream-flow  460
  downstream-flow_L9_R168_C391  downstream-flow  461
  downstream-flow_L9_R167_C391  downstream-flow  462
  downstream-flow_L9_R166_C391  downstream-flow  463
  downstream-flow_L9_R166_C392  downstream-flow  464
  downstream-flow_L9_R165_C392  downstream-flow  465
  downstream-flow_L9_R165_C391  downstream-flow  466
  downstream-flow_L9_R165_C390  downstream-flow  467
  downstream-flow_L9_R164_C390  downstream-flow  468
  downstream-flow_L9_R164_C389  downstream-flow  469
  downstream-flow_L9_R163_C389  downstream-flow  470
  downstream-flow_L5_R175_C372  downstream-flow  471
  downstream-flow_L10_R206_C265  downstream-flow  472
  downstream-flow_L10_R207_C265  downstream-flow  473
  downstream-flow_L10_R208_C265  downstream-flow  474
  downstream-flow_L10_R209_C265  downstream-flow  475
  downstream-flow_L10_R209_C266  downstream-flow  476
  downstream-flow_L10_R210_C266  downstream-flow  477
  downstream-flow_L9_R245_C302  downstream-flow  478
  downstream-flow_L9_R244_C301  downstream-flow  479
  downstream-flow_L9_R243_C301  downstream-flow  480
  downstream-flow_L9_R243_C300  downstream-flow  481
  downstream-flow_L9_R242_C300  downstream-flow  482
  downstream-flow_L9_R242_C299  downstream-flow  483
  downstream-flow_L9_R241_C299  downstream-flow  484
  downstream-flow_L9_R241_C298  downstream-flow  485
  downstream-flow_L9_R240_C298  downstream-flow  486
  downstream-flow_L9_R239_C297  downstream-flow  487
  downstream-flow_L10_R238_C297  downstream-flow  488
  downstream-flow_L10_R238_C296  downstream-flow  489
  downstream-flow_L10_R237_C296  downstream-flow  490
  downstream-flow_L10_R237_C295  downstream-flow  491
  downstream-flow_L10_R236_C295  downstream-flow  492
  downstream-flow_L10_R236_C294  downstream-flow  493
  downstream-flow_L10_R235_C294  downstream-flow  494
  downstream-flow_L10_R235_C293  downstream-flow  495
  downstream-flow_L10_R247_C245  downstream-flow  496
  downstream-flow_L10_R248_C245  downstream-flow  497
  downstream-flow_L9_R162_C389  downstream-flow  498
  downstream-flow_L9_R162_C388  downstream-flow  499
  downstream-flow_L9_R162_C387  downstream-flow  500
  downstream-flow_L9_R162_C386  downstream-flow  501
  downstream-flow_L9_R162_C385  downstream-flow  502
  downstream-flow_L9_R161_C385  downstream-flow  503
  downstream-flow_L9_R161_C384  downstream-flow  504
  downstream-flow_L9_R161_C383  downstream-flow  505
  downstream-flow_L9_R161_C382  downstream-flow  506
  downstream-flow_L9_R161_C381  downstream-flow  507
  downstream-flow_L9_R161_C380  downstream-flow  508
  downstream-flow_L9_R161_C379  downstream-flow  509
  downstream-flow_L9_R161_C378  downstream-flow  510
  downstream-flow_L9_R161_C377  downstream-flow  511
  downstream-flow_L9_R161_C376  downstream-flow  512
  downstream-flow_L7_R161_C375  downstream-flow  513
  downstream-flow_L9_R162_C375  downstream-flow  514
  downstream-flow_L9_R162_C374  downstream-flow  515
  downstream-flow_L9_R163_C374  downstream-flow  516
  downstream-flow_L9_R163_C373  downstream-flow  517
  downstream-flow_L9_R174_C372  downstream-flow  518
  downstream-flow_L9_R173_C373  downstream-flow  519
  downstream-flow_L9_R172_C373  downstream-flow  520
  downstream-flow_L9_R171_C373  downstream-flow  521
  downstream-flow_L9_R171_C374  downstream-flow  522
  downstream-flow_L9_R170_C374  downstream-flow  523
  downstream-flow_L9_R170_C375  downstream-flow  524
  downstream-flow_L9_R169_C375  downstream-flow  525
  downstream-flow_L9_R168_C375  downstream-flow  526
  downstream-flow_L9_R168_C376  downstream-flow  527
  downstream-flow_L9_R167_C376  downstream-flow  528
  downstream-flow_L9_R166_C376  downstream-flow  529
  downstream-flow_L9_R166_C377  downstream-flow  530
  downstream-flow_L9_R165_C377  downstream-flow  531
  downstream-flow_L9_R165_C376  downstream-flow  532
  downstream-flow_L9_R164_C376  downstream-flow  533
  downstream-flow_L9_R164_C375  downstream-flow  534