# MODFLOW-6 SFR input; created by SFRmaker v. 0.11.3

BEGIN Options
  save_flows
  BUDGET FILEOUT tf_mf6.sfr.cbc
  STAGE FILEOUT tf_mf6.sfr.stage.bin
  unit_conversion  86400.0
  auxiliary line_id
END Options

BEGIN Dimensions
  NREACHES 7819
END Dimensions

BEGIN Packagedata
#rno k i j rlen rwid rgrd rtp rbth rhk man ncon ustrf ndv line_id
1 1 281 393 9.055565 1.0 0.0001 19.629390220687945 1 1.0 0.03700000047683716 1 1.0 0 462
2 1 282 393 1.706178 1.0 0.0001 19.75939032360863 1 1.0 0.03700000047683716 2 1.0 0 462
3 1 282 393 4.667041 1.0 0.0034335238052743493 19.77601414974768 1 1.0 0.03700000047683716 2 1.0 0 281
4 1 281 393 14.09273 1.0 0.002460952001993122 19.759989753975233 1 1.0 0.03700000047683716 2 1.0 0 281
5 1 281 392 26.508957 1.0 0.0017538057970881789 19.72530822293013 1 1.0 0.03700000047683716 2 1.0 0 281
6 1 281 391 27.918734 1.0 0.0014134589743325808 19.67881666062805 1 1.0 0.03700000047683716 2 1.0 0 281
7 1 281 390 18.279442 1.0 0.0012454375044412794 19.63935467607365 1 1.0 0.03700000047683716 2 1.0 0 281
8 1 280 390 8.372604 1.0 0.003547608740616037 19.616588773653962 1 1.0 0.03700000047683716 2 1.0 0 281
9 1 280 389 26.400398 1.0 0.0017093943834949807 19.586886049208815 1 1.0 0.03700000047683716 2 1.0 0 281
10 1 280 388 26.431782 1.0 0.0013604655682832435 19.541757356710722 1 1.0 0.03700000047683716 2 1.0 0 281
11 1 280 387 15.666053 1.0 0.001449737763626402 19.505797827705894 1 1.0 0.03700000047683716 2 1.0 0 281
12 1 279 387 10.9225235 1.0 0.0029239921449342424 19.48308615932824 1 1.0 0.03700000047683716 2 1.0 0 281
13 1 279 386 26.4666 1.0 0.001701965827991731 19.451148786415665 1 1.0 0.03700000047683716 2 1.0 0 281
14 1 279 385 26.26788 1.0 0.0013074316194709168 19.406103536920963 1 1.0 0.03700000047683716 2 1.0 0 281
15 1 279 384 13.938012 1.0 0.0016256409547760094 19.371760080704405 1 1.0 0.03700000047683716 2 1.0 0 281
16 1 278 384 12.587935 1.0 0.0026511358290724823 19.349101877368916 1 1.0 0.03700000047683716 2 1.0 0 281
17 1 278 383 26.481066 1.0 0.0017083895463509422 19.315729550689486 1 1.0 0.03700000047683716 2 1.0 0 281
18 1 278 382 26.481379 1.0 0.0011659040091036715 19.270489574785746 1 1.0 0.03700000047683716 2 1.0 0 281
19 1 278 381 9.663702 1.0 0.0023384156608923907 19.239614829361532 1 1.0 0.03700000047683716 2 1.0 0 281
20 1 277 381 16.791534 1.0 0.0022061490031339494 19.21701707723656 1 1.0 0.03700000047683716 2 1.0 0 281
21 1 277 380 26.576641 1.0 0.0017075149543186916 19.17997245030634 1 1.0 0.03700000047683716 2 1.0 0 281
22 1 277 379 26.549707 1.0 0.0010090457799422586 19.13459243822196 1 1.0 0.03700000047683716 2 1.0 0 281
23 1 277 378 4.813235 1.0 0.004695309893789102 19.107802567998455 1 1.0 0.03700000047683716 2 1.0 0 281
24 1 276 378 21.644203 1.0 0.001900184998517369 19.085202938992428 1 1.0 0.03700000047683716 2 1.0 0 281
25 1 276 377 26.504328 1.0 0.0017081628333694998 19.04407494879346 1 1.0 0.03700000047683716 2 1.0 0 281
26 1 276 376 26.497576 1.0 0.0016745376604090443 18.99880124116639 1 1.0 0.03700000047683716 2 1.0 0 281
27 1 275 375 25.447823 1.0 0.0017468144545247598 18.954430052646916 1 1.0 0.03700000047683716 2 1.0 0 281
28 1 275 374 26.592947 1.0 0.0015878535359761907 18.90997742834406 1 1.0 0.03700000047683716 2 1.0 0 281
29 1 275 373 22.840715 1.0 0.0009901524813472568 18.867751723408198 1 1.0 0.03700000047683716 2 1.0 0 281
30 1 274 373 3.6355326 1.0 0.006634804904133167 18.845135932370898 1 1.0 0.03700000047683716 2 1.0 0 281
31 1 274 372 24.60302 1.0 0.0009240093655007381 18.821014882730715 1 1.0 0.03700000047683716 2 1.0 0 281
32 1 281 350 16.030241 1.0 0.0003204505679822273 17.245458569699895 1 1.0 0.03700000047683716 1 1.0 0 938
33 1 280 350 2.1018758 1.0 0.0039021594124821145 17.240321669862524 1 1.0 0.03700000047683716 2 1.0 0 938
34 1 280 349 26.848846 1.0 0.0005672352298658242 17.232119815495874 1 1.0 0.03700000047683716 2 1.0 0 938
35 1 280 348 26.908304 1.0 0.0004107646256898593 17.216890203916375 1 1.0 0.03700000047683716 2 1.0 0 938
36 1 280 347 12.106253 1.0 0.0006300360513741561 17.205837224407766 1 1.0 0.03700000047683716 2 1.0 0 938
37 1 279 347 14.816707 1.0 0.000798086431952877 17.19820984877844 1 1.0 0.03700000047683716 2 1.0 0 938
38 1 279 346 26.922958 1.0 0.0005528941980570768 17.186384836228935 1 1.0 0.03700000047683716 2 1.0 0 938
39 1 279 345 25.619715 1.0 0.0002977150880735216 17.171499288749406 1 1.0 0.03700000047683716 2 1.0 0 938
40 1 278 345 1.3032432 1.0 0.006135924029179472 17.16387191312008 1 1.0 0.03700000047683716 2 1.0 0 938
41 1 278 344 26.922958 1.0 0.00043649206456304634 17.15587531209725 1 1.0 0.03700000047683716 2 1.0 0 938
42 1 278 343 14.557782 1.0 0.0004791679223406786 17.14412365441243 1 1.0 0.03700000047683716 2 1.0 0 938
43 1 274 372 1.6739485 1.0 0.017366553557457837 18.79828146209505 1 1.0 0.03700000047683716 2 1.0 0 7557
44 1 274 371 26.655073 1.0 0.0017948070882059127 18.769210745359203 1 1.0 0.03700000047683716 2 1.0 0 7557
45 1 274 370 19.965052 1.0 0.001362147418261817 18.72137003110441 1 1.0 0.03700000047683716 2 1.0 0 7557
46 1 273 370 6.536441 1.0 0.005180623297091761 18.694174687542535 1 1.0 0.03700000047683716 2 1.0 0 7557
47 1 273 369 26.462437 1.0 0.0020507750732655585 18.660311849798568 1 1.0 0.03700000047683716 2 1.0 0 7557
48 1 273 368 26.42149 1.0 0.0017018329680017778 18.606043344285506 1 1.0 0.03700000047683716 2 1.0 0 7557
49 1 273 367 17.396257 1.0 0.0015677037966592817 18.56107838202382 1 1.0 0.03700000047683716 2 1.0 0 7557
50 1 272 367 9.180136 1.0 0.004006326616313557 18.533806203249373 1 1.0 0.03700000047683716 2 1.0 0 7557
51 1 272 366 26.66012 1.0 0.0020430389375478827 18.497027581145208 1 1.0 0.03700000047683716 2 1.0 0 7557
52 1 272 365 26.41786 1.0 0.0015104441001444584 18.44255991788431 1 1.0 0.03700000047683716 2 1.0 0 7557
53 1 272 364 12.466793 1.0 0.0021728993412877544 18.40265721706185 1 1.0 0.03700000047683716 2 1.0 0 7557
54 1 271 364 13.931156 1.0 0.0029783748272194377 18.375568130633148 1 1.0 0.03700000047683716 2 1.0 0 7557
55 1 271 363 26.502459 1.0 0.002053921392966645 18.334075925816766 1 1.0 0.03700000047683716 2 1.0 0 7557
56 1 271 362 26.542688 1.0 0.0013322648841171856 18.279641959188726 1 1.0 0.03700000047683716 2 1.0 0 7557
57 1 271 361 7.9170313 1.0 0.0034324047005061557 18.24428006754364 1 1.0 0.03700000047683716 2 1.0 0 7557
58 1 270 361 18.564117 1.0 0.002485393988189272 18.21710561213615 1 1.0 0.03700000047683716 2 1.0 0 7557
59 1 270 360 26.397793 1.0 0.0020528211682827977 18.170966466275512 1 1.0 0.03700000047683716 2 1.0 0 7557
60 1 270 359 26.409573 1.0 0.0012568548620532575 18.11677651838655 1 1.0 0.03700000047683716 2 1.0 0 7557
61 1 270 358 5.936587 1.0 0.004575365390833281 18.083583518657836 1 1.0 0.03700000047683716 2 1.0 0 7557
62 1 269 358 20.532465 1.0 0.002349205331944645 18.056421464613365 1 1.0 0.03700000047683716 2 1.0 0 7557
63 1 269 357 26.471851 1.0 0.002052361468385964 18.008186488401847 1 1.0 0.03700000047683716 2 1.0 0 7557
64 1 269 356 26.471806 1.0 0.0011253748631430234 17.95385668069657 1 1.0 0.03700000047683716 2 1.0 0 7557
65 1 269 355 2.5588057 1.0 0.010616206560432516 17.92406597612326 1 1.0 0.03700000047683716 2 1.0 0 7557
66 1 268 355 23.912998 1.0 0.002163624010373791 17.896901166220342 1 1.0 0.03700000047683716 2 1.0 0 7557
67 1 268 354 26.505709 1.0 0.0019903622501151797 17.84516242915596 1 1.0 0.03700000047683716 2 1.0 0 7557
68 1 268 353 24.904226 1.0 0.0010931125115497705 17.79240646715796 1 1.0 0.03700000047683716 2 1.0 0 7557
69 1 267 353 1.6242887 1.0 0.017753996792181072 17.765183345795574 1 1.0 0.03700000047683716 2 1.0 0 7557
70 1 267 352 26.477556 1.0 0.0020518979749421205 17.73634572981378 1 1.0 0.03700000047683716 2 1.0 0 7557
71 1 267 351 26.465502 1.0 0.0018557188005245424 17.682016485806823 1 1.0 0.03700000047683716 2 1.0 0 7557
72 1 267 350 21.394072 1.0 0.0012707746895953343 17.632903956578566 1 1.0 0.03700000047683716 2 1.0 0 7557
73 1 266 350 5.099299 1.0 0.006369364753146521 17.60571691190861 1 1.0 0.03700000047683716 2 1.0 0 7557
74 1 266 349 26.551392 1.0 0.0020561136621653512 17.57323761688518 1 1.0 0.03700000047683716 2 1.0 0 7557
75 1 266 348 26.648355 1.0 0.0016016413181814161 17.518644937863705 1 1.0 0.03700000047683716 2 1.0 0 7557
76 1 266 347 14.943877 1.0 0.0013817797077077213 17.47596383065893 1 1.0 0.03700000047683716 2 1.0 0 7557
77 1 265 347 5.178473 1.0 0.0027035394495997915 17.455314684361646 1 1.0 0.03700000047683716 2 1.0 0 7557
78 1 278 343 12.344933 1.0 0.0004646149812807242 17.13714803217463 1 1.0 0.03700000047683716 2 1.0 0 7703
79 1 278 342 12.487483 1.0 0.0004971597851213442 17.13141239156614 1 1.0 0.03700000047683716 2 1.0 0 7703
80 1 277 342 14.391201 1.0 0.0006622389906971629 17.125204117188925 1 1.0 0.03700000047683716 2 1.0 0 7703
81 1 277 341 26.870657 1.0 0.00046028665458577953 17.115673702750993 1 1.0 0.03700000047683716 2 1.0 0 7703
82 1 277 340 26.677408 1.0 0.0005851015322972018 17.103305497949055 1 1.0 0.03700000047683716 2 1.0 0 7703
83 1 276 339 40.901608 1.0 0.00029953797656049426 17.08769650552276 1 1.0 0.03700000047683716 2 1.0 0 7703
84 1 275 339 12.14156 1.0 0.0005943830093083144 17.075444920770117 1 1.0 0.03700000047683716 2 1.0 0 7703
85 1 275 340 19.103258 1.0 0.0005081392171612841 17.06822818403688 1 1.0 0.03700000047683716 2 1.0 0 7703
86 1 274 340 22.923592 1.0 0.000312091429812978 17.05852106940398 1 1.0 0.03700000047683716 2 1.0 0 7703
87 1 274 341 8.050725 1.0 0.0011180242733455756 17.05136681292079 1 1.0 0.03700000047683716 2 1.0 0 7703
88 1 273 341 30.918625 1.0 0.0002572927210227023 17.042365906971526 1 1.0 0.03700000047683716 2 1.0 0 7703
89 1 272 341 3.5231016 1.0 0.002047718144724422 17.034410769846403 1 1.0 0.03700000047683716 2 1.0 0 7703
90 1 272 342 27.711267 1.0 0.00034641325929809385 17.027196450839448 1 1.0 0.03700000047683716 2 1.0 0 7703
91 1 271 342 13.849879 1.0 0.0005213342333407152 17.01759690035543 1 1.0 0.03700000047683716 2 1.0 0 7703
92 1 271 343 17.410923 1.0 0.000555986474174818 17.010376484167036 1 1.0 0.03700000047683716 2 1.0 0 7703
93 1 270 343 24.499578 1.0 0.000294009896005492 17.00069624647383 1 1.0 0.03700000047683716 2 1.0 0 7703
94 1 270 344 6.686239 1.0 0.0013139077556033208 16.993493127953936 1 1.0 0.03700000047683716 2 1.0 0 7703
95 1 269 344 31.34877 1.0 0.0002560486082243693 16.984708026983846 1 1.0 0.03700000047683716 2 1.0 0 7703
96 1 268 344 3.4032261 1.0 0.0010971896228257553 16.976681218019543 1 1.0 0.03700000047683716 2 1.0 0 7703
97 1 268 345 12.7630205 1.0 0.01638688668550661 16.97294723361772 1 1.0 0.03700000047683716 2 1.0 0 7703
98 1 265 347 2.0394292 1.0 0.018620731715626178 17.441314478328927 1 1.0 0.03700000047683716 2 1.0 0 459
99 1 266 347 6.876773 1.0 0.0195160417826874 17.403338814570358 1 1.0 0.03700000047683716 2 1.0 0 459
100 1 266 346 24.63342 1.0 0.007218870302614605 17.26913142770341 1 1.0 0.03700000047683716 2 1.0 0 459
101 1 267 346 17.117735 1.0 0.0077928577976830934 17.09130595679742 1 1.0 0.03700000047683716 2 1.0 0 459
102 1 267 345 14.201969 1.0 0.008745198283319513 16.9579098828327 1 1.0 0.03700000047683716 2 1.0 0 459
103 1 268 345 14.958393 1.0 0.004673615909918194 16.83371084663097 1 1.0 0.03700000047683716 2 1.0 0 459
104 1 268 345 7.8956127 1.0 0.003418336625881444 16.763801062666378 1 1.0 0.03700000047683716 3 1.0 0 7213
105 1 268 344 26.478954 1.0 0.0008397533368200933 16.736811200533193 1 1.0 0.03700000047683716 2 1.0 0 7213
106 1 268 343 1.8407753 1.0 0.011212013457893194 16.71457541029151 1 1.0 0.03700000047683716 2 1.0 0 7213
107 1 267 343 24.445011 1.0 0.0016406373559698117 16.693936613399984 1 1.0 0.03700000047683716 2 1.0 0 7213
108 1 267 342 26.63363 1.0 0.0015599371094519676 16.65383121495838 1 1.0 0.03700000047683716 2 1.0 0 7213
109 1 267 341 26.280777 1.0 0.0015747643790018017 16.612284425988015 1 1.0 0.03700000047683716 2 1.0 0 7213
110 1 266 340 26.428905 1.0 0.0015689219014462252 16.570898394551296 1 1.0 0.03700000047683716 2 1.0 0 7213
111 1 266 339 26.381176 1.0 0.0014769828576488891 16.529433505901395 1 1.0 0.03700000047683716 2 1.0 0 7213
112 1 266 338 23.244493 1.0 0.0008996217040970984 16.49046896119235 1 1.0 0.03700000047683716 2 1.0 0 7213
113 1 265 338 3.3882682 1.0 0.007639548146197944 16.46955771035295 1 1.0 0.03700000047683716 2 1.0 0 7213
114 1 265 337 29.578922 1.0 0.0013682703078054393 16.443672872059715 1 1.0 0.03700000047683716 2 1.0 0 7213
115 1 264 337 21.966585 1.0 0.0009110899143083991 16.403200910978423 1 1.0 0.03700000047683716 2 1.0 0 7213
116 1 264 338 3.5228739 1.0 0.006473427871395894 16.383187376787987 1 1.0 0.03700000047683716 2 1.0 0 7213
117 1 263 338 25.52191 1.0 0.0009878073548873739 16.36038230683563 1 1.0 0.03700000047683716 2 1.0 0 7213
118 1 262 338 6.5866947 1.0 0.0017024034956604854 16.33517157670962 1 1.0 0.03700000047683716 2 1.0 0 7213
119 1 262 338 7.592232 1.0 0.0035701165336754557 16.323958364597857 1 1.0 0.03700000047683716 2 1.0 0 12188
120 1 262 337 26.469938 1.0 0.0014625799738592683 16.29685321079558 1 1.0 0.03700000047683716 2 1.0 0 12188
121 1 262 336 22.181198 1.0 0.0009510449795950905 16.258138809160595 1 1.0 0.03700000047683716 2 1.0 0 12188
122 1 261 336 4.32861 1.0 0.0056695800243061235 16.237043492047054 1 1.0 0.03700000047683716 2 1.0 0 12188
123 1 261 335 26.511757 1.0 0.0013880466259723876 16.212502091578997 1 1.0 0.03700000047683716 2 1.0 0 12188
124 1 261 334 19.733063 1.0 0.0012620127173580574 16.175702536869554 1 1.0 0.03700000047683716 2 1.0 0 12188
125 1 261 334 6.8675985 1.0 0.007765245703563097 16.150799160734024 1 1.0 0.03700000047683716 2 1.0 0 12626
126 1 261 333 32.938053 1.0 0.002380540217542671 16.097470570726955 1 1.0 0.03700000047683716 2 1.0 0 12626
127 1 261 332 25.5892 1.0 0.002679448428622381 16.019060210560806 1 1.0 0.03700000047683716 2 1.0 0 12626
128 1 261 331 25.5892 1.0 0.0016565212094955312 15.950495271333272 1 1.0 0.03700000047683716 2 1.0 0 12626
129 1 262 330 6.050944 1.0 0.005162503449373356 15.908106220346172 1 1.0 0.03700000047683716 2 1.0 0 12626
130 1 262 330 19.083273 1.0 0.0028353204513534573 15.876868201840988 1 1.0 0.03700000047683716 2 1.0 0 12699
131 1 262 329 25.554823 1.0 0.0024678570142930042 15.822761007812572 1 1.0 0.03700000047683716 2 1.0 0 12699
132 1 262 328 26.473932 1.0 0.002384767928223415 15.759695358816108 1 1.0 0.03700000047683716 2 1.0 0 12699
133 1 262 327 25.61137 1.0 0.0018965931673032086 15.696561174213631 1 1.0 0.03700000047683716 2 1.0 0 12699
134 1 262 326 14.46215 1.0 0.0020997491859668193 15.647986824701979 1 1.0 0.03700000047683716 2 1.0 0 12699
135 1 263 326 10.590359 1.0 0.004078446339002184 15.617619937809936 1 1.0 0.03700000047683716 2 1.0 0 12699
136 1 263 325 25.042934 1.0 0.002424329266899351 15.574427728002 1 1.0 0.03700000047683716 2 1.0 0 12699
137 1 263 324 25.044344 1.0 0.0020777713166274196 15.51371540916407 1 1.0 0.03700000047683716 2 1.0 0 12699
138 1 263 323 17.885378 1.0 0.0018979064876708607 15.461678989664406 1 1.0 0.03700000047683716 2 1.0 0 12699
139 1 273 326 6.5671134 1.0 0.0015333942017207818 15.826693475677008 1 1.0 0.03700000047683716 1 1.0 0 7030
140 1 273 327 13.433399 1.0 0.0015621355742720749 15.816623502068163 1 1.0 0.03700000047683716 2 1.0 0 7030
141 1 272 327 28.245615 1.0 0.000956895930807935 15.795638711293758 1 1.0 0.03700000047683716 2 1.0 0 7030
142 1 271 327 25.436377 1.0 0.0009741083047299211 15.768610597231834 1 1.0 0.03700000047683716 2 1.0 0 7030
143 1 270 327 23.77612 1.0 0.0006260588635702108 15.743832811571147 1 1.0 0.03700000047683716 2 1.0 0 7030
144 1 270 326 5.7882795 1.0 0.0031436465740026956 15.72894756138454 1 1.0 0.03700000047683716 2 1.0 0 7030
145 1 269 326 30.352386 1.0 0.0006353191397267195 15.71075125626004 1 1.0 0.03700000047683716 2 1.0 0 7030
146 1 268 326 7.9474883 1.0 0.0019143584384940467 15.69146780419634 1 1.0 0.03700000047683716 2 1.0 0 7030
147 1 268 325 22.270535 1.0 0.0010016240097905323 15.676253462889177 1 1.0 0.03700000047683716 2 1.0 0 7030
148 1 267 325 22.034018 1.0 0.000692012791579315 15.653946760807703 1 1.0 0.03700000047683716 2 1.0 0 7030
149 1 267 324 8.250481 1.0 0.0021817301554423164 15.638698938804316 1 1.0 0.03700000047683716 2 1.0 0 7030
150 1 266 324 27.500908 1.0 0.0009911081926647863 15.62069861636927 1 1.0 0.03700000047683716 2 1.0 0 7030
151 1 265 324 26.634422 1.0 0.0010046971103495645 15.593442241245892 1 1.0 0.03700000047683716 2 1.0 0 7030
152 1 264 323 26.51411 1.0 0.0009435067206243298 15.566682714122996 1 1.0 0.03700000047683716 2 1.0 0 7030
153 1 263 323 23.17196 1.0 0.0049168155643690824 15.541666472613366 1 1.0 0.03700000047683716 2 1.0 0 7030
154 1 263 323 7.123055 1.0 0.007765434462140341 15.427734214944087 1 1.0 0.03700000047683716 3 1.0 0 7455
155 1 263 322 25.000074 1.0 0.00345563825613996 15.37242059831711 1 1.0 0.03700000047683716 2 1.0 0 7455
156 1 263 321 25.171228 1.0 0.0023304646821432577 15.286029384860441 1 1.0 0.03700000047683716 2 1.0 0 7455
157 1 263 320 8.89568 1.0 0.004957516263656698 15.22736872604754 1 1.0 0.03700000047683716 2 1.0 0 7455
158 1 262 320 16.715479 1.0 0.0043582994940686536 15.183268245651663 1 1.0 0.03700000047683716 2 1.0 0 7455
159 1 262 319 25.592436 1.0 0.0034458796613878566 15.11041718243134 1 1.0 0.03700000047683716 2 1.0 0 7455
160 1 262 318 25.622602 1.0 0.003441270986772329 15.022228728295964 1 1.0 0.03700000047683716 2 1.0 0 7455
161 1 262 317 25.584225 1.0 0.0001 14.934054409835237 1 1.0 0.03700000047683716 2 1.0 0 7455
162 1 262 316 24.931503 1.0 0.0001 14.96711108635425 1 1.0 0.03700000047683716 2 1.0 0 8862
163 1 262 315 12.25031 1.0 0.0001 15.082110857472413 1 1.0 0.03700000047683716 2 1.0 0 8862
164 1 261 315 13.89658 1.0 0.003910465717327879 15.101502019988438 1 1.0 0.03700000047683716 2 1.0 0 10791
165 1 261 314 26.928099 1.0 0.0026454809738014813 15.047159921317546 1 1.0 0.03700000047683716 2 1.0 0 10791
166 1 261 313 26.589502 1.0 0.0026789552021809363 14.97592214860269 1 1.0 0.03700000047683716 2 1.0 0 10791
167 1 260 312 26.923828 1.0 0.002665862173807794 14.904690063000025 1 1.0 0.03700000047683716 2 1.0 0 10791
168 1 260 311 26.997528 1.0 0.0019363328066242446 14.832914848027485 1 1.0 0.03700000047683716 2 1.0 0 10791
169 1 260 310 12.275139 1.0 0.002841362951015081 14.780638648715835 1 1.0 0.03700000047683716 2 1.0 0 10791
170 1 259 310 13.9271345 1.0 0.0037245502826769084 14.745760523954727 1 1.0 0.03700000047683716 2 1.0 0 10791
171 1 259 309 25.042097 1.0 0.0026625625616445007 14.69388821116427 1 1.0 0.03700000047683716 2 1.0 0 10791
172 1 259 308 25.048605 1.0 0.002679813691287881 14.62721206098291 1 1.0 0.03700000047683716 2 1.0 0 10791
173 1 259 307 25.379719 1.0 0.0026629207152256956 14.560086466449478 1 1.0 0.03700000047683716 2 1.0 0 10791
174 1 259 306 25.393074 1.0 0.0026635966345296873 14.492502287562235 1 1.0 0.03700000047683716 2 1.0 0 10791
175 1 259 305 25.419386 1.0 0.0026624919330073115 14.42486538102053 1 1.0 0.03700000047683716 2 1.0 0 10791
176 1 259 304 25.424664 1.0 0.0018173595637783692 14.357186471093064 1 1.0 0.03700000047683716 2 1.0 0 10791
177 1 259 303 9.287578 1.0 0.0036433079160182492 14.310980715646071 1 1.0 0.03700000047683716 2 1.0 0 10791
178 1 258 303 16.13293 1.0 0.0034276315038915296 14.277143210549376 1 1.0 0.03700000047683716 2 1.0 0 10791
179 1 258 302 25.40968 1.0 0.00266036278068025 14.221845468841328 1 1.0 0.03700000047683716 2 1.0 0 10791
180 1 258 301 25.374279 1.0 0.002663315492935928 14.154246503462387 1 1.0 0.03700000047683716 2 1.0 0 10791
181 1 258 300 25.395203 1.0 0.0026637956695253146 14.086666793020438 1 1.0 0.03700000047683716 2 1.0 0 10791
182 1 258 299 25.425308 1.0 0.002559126323350179 14.019019162210029 1 1.0 0.03700000047683716 2 1.0 0 10791
183 1 258 298 23.456142 1.0 0.0014411244322008355 13.953952586645642 1 1.0 0.03700000047683716 2 1.0 0 10791
184 1 257 298 1.9386573 1.0 0.018757670873554032 13.920149366711017 1 1.0 0.03700000047683716 2 1.0 0 10791
185 1 257 297 25.380423 1.0 0.0021191243253212404 13.883784671445198 1 1.0 0.03700000047683716 2 1.0 0 10791
186 1 257 296 15.157342 1.0 0.0001 13.830000400543213 1 1.0 0.03700000047683716 2 1.0 0 8049
187 1 257 296 9.562488 1.0 0.026200217077247977 13.981514886291167 1 1.0 0.03700000047683716 2 1.0 0 1756
188 1 257 295 25.419884 1.0 0.014330160865247847 13.730975635314147 1 1.0 0.03700000047683716 2 1.0 0 1756
189 1 257 294 25.442661 1.0 0.010787428070599176 13.366704612315619 1 1.0 0.03700000047683716 2 1.0 0 1756
190 1 257 293 12.879842 1.0 0.0001 13.092243733774744 1 1.0 0.03700000047683716 2 1.0 0 1756
191 1 263 289 6.1919227 1.0 0.03149267049886682 14.2787067316536 1 1.0 0.03700000047683716 1 1.0 0 523
192 1 263 288 4.657091 1.0 0.021473990237618767 14.083706551421553 1 1.0 0.03700000047683716 2 1.0 0 523
193 1 257 293 12.463504 1.0 0.024070253245565724 13.806008017683949 1 1.0 0.03700000047683716 2 1.0 0 280
194 1 257 292 1.7000022 1.0 0.0263881802991738 13.506008323986187 1 1.0 0.03700000047683716 2 1.0 0 280
195 1 263 288 11.872699 1.0 0.001886595525510906 13.98370022172945 1 1.0 0.03700000047683716 2 1.0 0 6903
196 1 263 289 4.442638 1.0 0.009667688885212324 13.961301241328053 1 1.0 0.03700000047683716 2 1.0 0 6903
197 1 262 289 26.842016 1.0 0.002735794666629444 13.918351200084176 1 1.0 0.03700000047683716 2 1.0 0 6903
198 1 261 289 26.647211 1.0 0.0031409284820709147 13.844916955267665 1 1.0 0.03700000047683716 2 1.0 0 6903
199 1 260 289 34.31737 1.0 0.0016122498879664162 13.76121997103498 1 1.0 0.03700000047683716 2 1.0 0 6903
200 1 260 288 5.983484 1.0 0.006405106249329912 13.705891792890961 1 1.0 0.03700000047683716 2 1.0 0 6903
201 1 259 288 21.932178 1.0 0.0031152209836211933 13.667566943466213 1 1.0 0.03700000047683716 2 1.0 0 6903
202 1 259 287 27.834467 1.0 0.0017218896171460741 13.599243360794853 1 1.0 0.03700000047683716 2 1.0 0 6903
203 1 259 286 7.0760164 1.0 0.005381571382006069 13.551315481182051 1 1.0 0.03700000047683716 2 1.0 0 6903
204 1 258 286 20.661383 1.0 0.0031969991773317993 13.51323539368482 1 1.0 0.03700000047683716 2 1.0 0 6903
205 1 258 285 27.452425 1.0 0.0017622051722909358 13.447180970269761 1 1.0 0.03700000047683716 2 1.0 0 6903
206 1 258 284 7.7850842 1.0 0.006916214000594365 13.398804164937454 1 1.0 0.03700000047683716 2 1.0 0 6903
207 1 257 284 31.434196 1.0 0.0020378441151152685 13.344960856268472 1 1.0 0.03700000047683716 2 1.0 0 6903
208 1 257 283 15.225412 1.0 0.0025252289507734157 13.280902863974287 1 1.0 0.03700000047683716 2 1.0 0 6903
209 1 257 292 11.126564 1.0 0.0016923500457029655 13.461148359596413 1 1.0 0.03700000047683716 2 1.0 0 512
210 1 256 292 12.542195 1.0 0.002409064697937807 13.4423183184587 1 1.0 0.03700000047683716 2 1.0 0 512
211 1 256 291 25.437037 1.0 0.0015907449695729667 13.412103358478335 1 1.0 0.03700000047683716 2 1.0 0 512
212 1 256 290 25.424715 1.0 0.001590712076538526 13.371639520602397 1 1.0 0.03700000047683716 2 1.0 0 512
213 1 256 289 25.411356 1.0 0.0015905785743703632 13.331196119342355 1 1.0 0.03700000047683716 2 1.0 0 512
214 1 256 288 25.393713 1.0 0.0015914279176362568 13.290777360987132 1 1.0 0.03700000047683716 2 1.0 0 512
215 1 256 287 25.403206 1.0 0.0015697186524025286 13.250365097190569 1 1.0 0.03700000047683716 2 1.0 0 512
216 1 255 286 24.71951 1.0 0.0010144799112209023 13.210489211103125 1 1.0 0.03700000047683716 2 1.0 0 512
217 1 255 285 6.8020515 1.0 0.0027085826208189134 13.185411765680819 1 1.0 0.03700000047683716 2 1.0 0 512
218 1 257 283 5.418267 1.0 0.018389829233489707 13.242455211873194 1 1.0 0.03700000047683716 2 1.0 0 7868
219 1 256 283 25.352953 1.0 0.005224444366664416 13.142814211172116 1 1.0 0.03700000047683716 2 1.0 0 7868
220 1 255 283 15.551935 1.0 0.0038528460388213837 13.010359118916808 1 1.0 0.03700000047683716 2 1.0 0 7868
221 1 255 285 18.580242 1.0 0.0016572520035701293 13.166987847082313 1 1.0 0.03700000047683716 2 1.0 0 6095
222 1 255 284 25.387276 1.0 0.0008660978995645356 13.136195703540835 1 1.0 0.03700000047683716 2 1.0 0 6095
223 1 255 283 6.00878 1.0 0.027254772235486686 13.114207837385036 1 1.0 0.03700000047683716 2 1.0 0 6095
224 1 255 283 21.308304 1.0 0.0001 12.95043990700119 1 1.0 0.03700000047683716 3 1.0 0 12125
225 1 255 282 3.8963323 1.0 0.0001 12.9509604788478 1 1.0 0.03700000047683716 2 1.0 0 12125
226 1 254 282 22.305262 1.0 0.0001 12.951501641635176 1 1.0 0.03700000047683716 2 1.0 0 12125
227 1 254 281 26.016384 1.0 0.0001 12.952499667624567 1 1.0 0.03700000047683716 2 1.0 0 12125
228 1 254 280 26.057133 1.0 0.0001 12.95357518433635 1 1.0 0.03700000047683716 2 1.0 0 12125
229 1 254 279 13.409117 1.0 0.0001 12.954390312857944 1 1.0 0.03700000047683716 2 1.0 0 12125
230 1 253 279 12.6472645 1.0 0.0001 12.954928476499546 1 1.0 0.03700000047683716 2 1.0 0 12125
231 1 253 278 25.979477 1.0 0.0001 12.95572626566305 1 1.0 0.03700000047683716 2 1.0 0 12125
232 1 253 277 25.90509 1.0 0.0001 12.956797880160472 1 1.0 0.03700000047683716 2 1.0 0 12125
233 1 253 276 26.040562 1.0 0.0001 12.957870755896941 1 1.0 0.03700000047683716 2 1.0 0 12125
234 1 252 275 25.264643 1.0 0.0001 12.958930404065883 1 1.0 0.03700000047683716 2 1.0 0 12125
235 1 252 274 13.262028 1.0 0.057167478300844454 12.959726126776506 1 1.0 0.03700000047683716 2 1.0 0 12125
236 1 252 274 13.119758 1.0 0.0007622266934873017 12.201569443697503 1 1.0 0.03700000047683716 2 1.0 0 148
237 1 252 273 2.4426775 1.0 0.007962753731587441 12.191569214202849 1 1.0 0.03700000047683716 2 1.0 0 148
238 1 301 277 19.077894 1.0 0.0005859828658398072 14.509912917081406 1 1.0 0.03700000047683716 1 1.0 0 382
239 1 301 276 2.064806 1.0 0.008145893497588059 14.498733597957564 1 1.0 0.03700000047683716 2 1.0 0 382
240 1 300 276 29.745153 1.0 0.0007833861837315992 14.481913908314668 1 1.0 0.03700000047683716 2 1.0 0 382
241 1 299 276 14.324255 1.0 0.0010982738984974835 14.458611966086883 1 1.0 0.03700000047683716 2 1.0 0 382
242 1 299 275 15.428534 1.0 0.0015561921372232433 14.442880010716356 1 1.0 0.03700000047683716 2 1.0 0 382
243 1 298 275 29.979538 1.0 0.001085977615878913 14.418870248110617 1 1.0 0.03700000047683716 2 1.0 0 382
244 1 297 274 31.593565 1.0 0.0006752409519313994 14.386313140947465 1 1.0 0.03700000047683716 2 1.0 0 382
245 1 296 274 8.752609 1.0 0.001904045442682901 14.364979872050613 1 1.0 0.03700000047683716 2 1.0 0 382
246 1 296 273 22.765501 1.0 0.0009915508847826342 14.348314506290988 1 1.0 0.03700000047683716 2 1.0 0 382
247 1 295 273 19.925575 1.0 0.000803841674516799 14.325741353609768 1 1.0 0.03700000047683716 2 1.0 0 382
248 1 295 272 10.366335 1.0 0.0020606194936370237 14.309724345829995 1 1.0 0.03700000047683716 2 1.0 0 382
249 1 294 272 30.032433 1.0 0.0006110179121014307 14.288363274026244 1 1.0 0.03700000047683716 2 1.0 0 382
250 1 293 272 4.6723623 1.0 0.0034117139199944697 14.270012919790457 1 1.0 0.03700000047683716 2 1.0 0 382
251 1 293 271 25.475351 1.0 0.0009311123362500725 14.254072156198209 1 1.0 0.03700000047683716 2 1.0 0 382
252 1 292 271 19.385492 1.0 0.0008203909411052423 14.230351742301172 1 1.0 0.03700000047683716 2 1.0 0 382
253 1 292 270 10.692118 1.0 0.0020200623038937366 14.214448060009017 1 1.0 0.03700000047683716 2 1.0 0 382
254 1 291 270 30.156168 1.0 0.0005973011605055836 14.192849316112552 1 1.0 0.03700000047683716 2 1.0 0 382
255 1 290 270 3.9093153 1.0 0.004101592596220616 14.174837001979302 1 1.0 0.03700000047683716 2 1.0 0 382
256 1 290 269 26.41556 1.0 0.0008829501096863767 14.158802583093001 1 1.0 0.03700000047683716 2 1.0 0 382
257 1 289 269 17.694813 1.0 0.0009027196847105776 14.135478961697821 1 1.0 0.03700000047683716 2 1.0 0 382
258 1 289 268 12.514665 1.0 0.0017999375664832608 14.119505505888869 1 1.0 0.03700000047683716 2 1.0 0 382
259 1 288 268 30.086592 1.0 0.0005705519412199506 14.09697989085346 1 1.0 0.03700000047683716 2 1.0 0 382
260 1 287 268 2.3782237 1.0 0.006713835018619093 14.07981392754259 1 1.0 0.03700000047683716 2 1.0 0 382
261 1 287 267 27.819092 1.0 0.0008472270593974525 14.063846926268033 1 1.0 0.03700000047683716 2 1.0 0 382
262 1 286 267 16.755562 1.0 0.0009528661198594366 14.040277838929859 1 1.0 0.03700000047683716 2 1.0 0 382
263 1 286 266 13.439509 1.0 0.0017099449394764067 14.024312031744163 1 1.0 0.03700000047683716 2 1.0 0 382
264 1 285 266 30.022537 1.0 0.0005554504520772209 14.001331210670635 1 1.0 0.03700000047683716 2 1.0 0 382
265 1 284 266 1.5157061 1.0 0.010464164965358189 13.984655178792924 1 1.0 0.03700000047683716 2 1.0 0 382
266 1 284 265 28.48039 1.0 0.0008350303383122893 13.968794580517846 1 1.0 0.03700000047683716 2 1.0 0 382
267 1 283 265 16.496864 1.0 0.0009684267895556669 13.945012590362694 1 1.0 0.03700000047683716 2 1.0 0 382
268 1 283 264 13.717511 1.0 0.0016961707365805748 13.929036585012657 1 1.0 0.03700000047683716 2 1.0 0 382
269 1 282 264 30.28633 1.0 0.0010479350979758209 13.905769343975406 1 1.0 0.03700000047683716 2 1.0 0 382
270 1 281 263 29.737728 1.0 0.0007325067103868764 13.87403123654514 1 1.0 0.03700000047683716 2 1.0 0 382
271 1 280 263 11.459228 1.0 0.0017546984001694987 13.852248151146387 1 1.0 0.03700000047683716 2 1.0 0 382
272 1 280 262 26.568754 1.0 0.0008007520523617016 13.832140662876254 1 1.0 0.03700000047683716 2 1.0 0 382
273 1 279 262 13.667325 1.0 0.0011668748049062975 13.81086567842498 1 1.0 0.03700000047683716 2 1.0 0 382
274 1 279 261 16.494066 1.0 0.0014701831613117193 13.794917621208867 1 1.0 0.03700000047683716 2 1.0 0 382
275 1 278 261 29.367094 1.0 0.000616274517620246 13.770668322763607 1 1.0 0.03700000047683716 2 1.0 0 382
276 1 277 261 4.8608127 1.0 0.0028124136451798737 13.752570131050248 1 1.0 0.03700000047683716 2 1.0 0 382
277 1 252 273 23.533882 1.0 0.0011237089871174875 12.17211877484167 1 1.0 0.03700000047683716 2 1.0 0 298
278 1 252 272 11.2721 1.0 0.001699080300545827 12.145673539977937 1 1.0 0.03700000047683716 2 1.0 0 298
279 1 251 272 13.935135 1.0 0.00119889166628837 12.126521336159932 1 1.0 0.03700000047683716 2 1.0 0 298
280 1 251 271 8.053462 1.0 0.002387626204885017 12.10981461907447 1 1.0 0.03700000047683716 2 1.0 0 298